<?xml version="1.0" encoding="UTF-8"?>

<!-- generated on 2023-01-11 20:27:29 by Eclipse SUMO netedit Version 1.14.1
<configuration xmlns:xsi="http://www.w3.org/2001/XMLSchema-instance" xsi:noNamespaceSchemaLocation="http://sumo.dlr.de/xsd/netconvertConfiguration.xsd">

    <input>
        <sumo-net-file value="C:\Users\Vitor\OneDrive\URB\GITHUB\TRAFFIC%20FLOW%20MICROSSIMULATION%20MARINGA\traffic-flow-microssimulation-maringa\model.net.xml"/>
    </input>

    <output>
        <output-file value="C:\Users\Vitor\OneDrive\URB\GITHUB\TRAFFIC%20FLOW%20MICROSSIMULATION%20MARINGA\traffic-flow-microssimulation-maringa\model.net.xml"/>
    </output>

    <processing>
        <geometry.min-radius.fix.railways value="false"/>
        <geometry.max-grade.fix value="false"/>
        <offset.disable-normalization value="true"/>
        <lefthand value="false"/>
    </processing>

    <junctions>
        <no-internal-links value="true"/>
        <no-turnarounds value="true"/>
        <junctions.corner-detail value="5"/>
        <junctions.limit-turn-speed value="5.5"/>
        <rectangular-lane-cut value="false"/>
    </junctions>

    <pedestrian>
        <walkingareas value="false"/>
    </pedestrian>

</configuration>
-->

<net version="1.9" junctionCornerDetail="5" limitTurnSpeed="5.50" xmlns:xsi="http://www.w3.org/2001/XMLSchema-instance" xsi:noNamespaceSchemaLocation="http://sumo.dlr.de/xsd/net_file.xsd">

    <location netOffset="0.00,0.00" convBoundary="-62.58,-22.21,201.75,123.61" origBoundary="-10000000000.00,-10000000000.00,10000000000.00,10000000000.00" projParameter="!"/>

    <edge id="E0" from="J1" to="J2" priority="-1">
        <lane id="E0_0" index="0" speed="13.89" length="66.99" width="3.00" shape="-18.25,-26.11 32.51,2.98"/>
        <lane id="E0_1" index="1" speed="13.89" length="66.99" width="3.00" shape="-19.74,-23.51 31.02,5.58"/>
    </edge>
    <edge id="E1" from="J0" to="J3" priority="-1" shape="27.38,30.41 20.27,17.11 -29.73,-12.62">
        <lane id="E1_0" index="0" speed="13.89" length="73.25" width="3.00" shape="19.30,24.83 16.89,20.34 -32.03,-8.75"/>
        <lane id="E1_1" index="1" speed="13.89" length="73.25" width="3.00" shape="21.94,23.42 19.14,18.19 -30.50,-11.33"/>
    </edge>
    <edge id="E10" from="J2" to="J6" priority="-1" shape="37.63,11.10 54.92,-0.43 72.27,-6.04 89.62,-8.04 106.71,-3.94 118.48,1.26 131.07,14.01">
        <lane id="E10_0" index="0" speed="13.89" length="104.84" width="3.00" shape="40.28,3.92 52.94,-4.52 71.31,-10.46 89.90,-12.60 108.16,-8.22 121.08,-2.51 129.73,6.25"/>
        <lane id="E10_1" index="1" speed="13.89" length="104.84" width="3.00" shape="41.95,6.42 54.26,-1.79 71.95,-7.51 89.71,-9.56 107.19,-5.37 119.35,0.00 127.59,8.36"/>
    </edge>
    <edge id="E11" from="J6" to="J5" priority="-1">
        <lane id="E11_0" index="0" speed="13.89" length="17.83" width="3.00" shape="136.44,14.89 141.18,25.07"/>
        <lane id="E11_1" index="1" speed="13.89" length="17.83" width="3.00" shape="133.72,16.15 138.46,26.34"/>
    </edge>
    <edge id="E12" from="J5" to="J8" priority="-1" shape="138.59,30.18 141.24,48.27 136.77,66.48">
        <lane id="E12_0" index="0" speed="13.89" length="37.03" width="3.00" shape="143.93,35.61 145.82,48.49 142.53,61.88"/>
        <lane id="E12_1" index="1" speed="13.89" length="37.03" width="3.00" shape="140.97,36.05 142.77,48.34 139.62,61.17"/>
    </edge>
    <edge id="E13" from="J8" to="J11" priority="-1" shape="136.77,66.48 131.88,76.98 124.27,85.98">
        <lane id="E13_0" index="0" speed="13.89" length="23.37" width="3.00" shape="139.03,72.29 135.71,79.43 130.24,85.89"/>
        <lane id="E13_1" index="1" speed="13.89" length="23.37" width="3.00" shape="136.31,71.02 133.16,77.80 127.95,83.95"/>
    </edge>
    <edge id="E14" from="J11" to="J12" priority="-1" shape="124.27,85.98 107.48,100.45 86.96,104.90 67.37,102.49 54.20,98.28 40.26,86.05">
        <lane id="E14_0" index="0" speed="13.89" length="95.27" width="3.00" shape="121.83,94.03 109.55,104.61 87.17,109.46 66.40,106.90 51.94,102.28 40.18,91.97"/>
        <lane id="E14_1" index="1" speed="13.89" length="95.27" width="3.00" shape="119.87,91.75 108.17,101.84 87.03,106.42 67.05,103.96 53.45,99.61 42.16,89.71"/>
    </edge>
    <edge id="E15" from="J12" to="J15" priority="-1">
        <lane id="E15_0" index="0" speed="13.89" length="21.47" width="3.00" shape="33.44,84.04 26.14,73.34"/>
        <lane id="E15_1" index="1" speed="13.89" length="21.47" width="3.00" shape="35.92,82.35 28.62,71.65"/>
    </edge>
    <edge id="E2" from="J4" to="J5" priority="-1" shape="201.75,-2.85 164.16,13.99 150.38,21.88 138.59,30.18">
        <lane id="E2_0" index="0" speed="13.89" length="71.49" width="3.00" shape="203.59,1.26 166.20,18.01 152.80,25.68 148.18,28.93"/>
        <lane id="E2_1" index="1" speed="13.89" length="71.49" width="3.00" shape="202.36,-1.48 164.84,15.33 151.19,23.15 146.45,26.48"/>
    </edge>
    <edge id="E3" from="J6" to="J7" priority="-1" shape="131.07,14.01 150.10,6.93 195.03,-16.64">
        <lane id="E3_0" index="0" speed="13.89" length="71.04" width="3.00" shape="137.57,6.79 148.26,2.81 192.94,-20.62"/>
        <lane id="E3_1" index="1" speed="13.89" length="71.04" width="3.00" shape="138.61,9.60 149.49,5.56 194.33,-17.97"/>
    </edge>
    <edge id="E4" from="J8" to="J9" priority="-1" shape="136.77,66.48 147.20,76.28 193.43,103.31">
        <lane id="E4_0" index="0" speed="13.89" length="67.86" width="3.00" shape="146.16,69.13 149.91,72.65 195.70,99.43"/>
        <lane id="E4_1" index="1" speed="13.89" length="67.86" width="3.00" shape="144.10,71.31 148.10,75.07 194.19,102.02"/>
    </edge>
    <edge id="E5" from="J10" to="J11" priority="-1">
        <lane id="E5_0" index="0" speed="13.89" length="60.63" width="3.00" shape="174.52,120.21 129.76,94.35"/>
        <lane id="E5_1" index="1" speed="13.89" length="60.63" width="3.00" shape="176.02,117.61 131.26,91.75"/>
    </edge>
    <edge id="E6" from="J12" to="J13" priority="-1" shape="40.26,86.05 25.54,86.26 14.60,89.35 -56.44,123.61">
        <lane id="E6_0" index="0" speed="13.89" length="104.96" width="3.00" shape="31.59,90.67 26.19,90.75 16.20,93.57 -54.49,127.66"/>
        <lane id="E6_1" index="1" speed="13.89" length="104.96" width="3.00" shape="31.55,87.67 25.76,87.76 15.13,90.76 -55.79,124.96"/>
    </edge>
    <edge id="E7" from="J14" to="J15" priority="-1">
        <lane id="E7_0" index="0" speed="13.89" length="99.80" width="3.00" shape="-64.45,105.76 18.01,68.01"/>
        <lane id="E7_1" index="1" speed="13.89" length="99.80" width="3.00" shape="-63.20,108.49 19.26,70.74"/>
    </edge>
    <edge id="E8" from="J15" to="J0" priority="-1" shape="28.16,68.31 25.27,49.26 27.38,30.41">
        <lane id="E8_0" index="0" speed="13.89" length="38.24" width="3.00" shape="22.58,61.53 20.73,49.35 22.53,33.25"/>
        <lane id="E8_1" index="1" speed="13.89" length="38.24" width="3.00" shape="25.55,61.08 23.76,49.29 25.52,33.59"/>
    </edge>
    <edge id="E9" from="J0" to="J2" priority="-1">
        <lane id="E9_0" index="0" speed="13.89" length="21.86" width="3.00" shape="26.00,23.41 32.49,11.18"/>
        <lane id="E9_1" index="1" speed="13.89" length="21.86" width="3.00" shape="28.65,24.82 35.14,12.58"/>
    </edge>

    <junction id="J0" type="priority" x="27.38" y="30.41" incLanes="E8_0 E8_1" intLanes="" shape="29.97,25.52 24.67,22.71 24.21,23.30 23.97,23.37 23.74,23.30 23.50,23.08 23.26,22.71 17.97,25.54 19.72,28.19 20.40,29.14 20.88,30.13 21.11,31.37 21.04,33.09 27.01,33.75 27.54,30.55 27.90,29.46 28.40,28.41">
        <request index="0" response="0000" foes="0000"/>
        <request index="1" response="0000" foes="0000"/>
        <request index="2" response="0000" foes="0000"/>
        <request index="3" response="0000" foes="0000"/>
    </junction>
    <junction id="J1" type="dead_end" x="-20.49" y="-22.21" incLanes="" intLanes="" shape="-20.49,-22.21 -17.51,-27.42"/>
    <junction id="J10" type="dead_end" x="176.77" y="116.31" incLanes="" intLanes="" shape="176.77,116.31 173.77,121.51"/>
    <junction id="J11" type="priority" x="124.27" y="85.98" incLanes="E5_0 E5_1 E13_0 E13_1" intLanes="" shape="129.01,95.65 132.01,90.45 130.85,89.42 130.62,88.84 130.64,88.22 130.89,87.56 131.38,86.86 126.80,82.99 125.27,84.76 124.10,86.03 123.08,87.03 122.00,87.98 120.67,89.10 118.89,90.62 122.81,95.16 124.45,94.39 125.43,94.36 126.52,94.55 127.71,94.98">
        <request index="0" response="0100" foes="0100"/>
        <request index="1" response="1100" foes="1100"/>
        <request index="2" response="0000" foes="0011"/>
        <request index="3" response="0000" foes="0010"/>
    </junction>
    <junction id="J12" type="priority" x="40.26" y="86.05" incLanes="E14_0 E14_1" intLanes="" shape="39.19,93.10 43.15,88.59 40.63,86.24 39.83,85.33 39.10,84.36 38.27,83.14 37.16,81.50 32.20,84.88 32.51,85.59 32.47,85.84 32.29,86.02 31.97,86.13 31.53,86.17 31.61,92.17 34.64,91.83 35.76,91.67 36.80,91.73 37.90,92.15">
        <request index="0" response="0000" foes="0000"/>
        <request index="1" response="0000" foes="0000"/>
        <request index="2" response="0000" foes="0000"/>
        <request index="3" response="0000" foes="0000"/>
    </junction>
    <junction id="J13" type="dead_end" x="-56.44" y="123.61" incLanes="E6_0 E6_1" intLanes="" shape="-53.83,129.01 -56.44,123.61"/>
    <junction id="J14" type="dead_end" x="-62.58" y="109.85" incLanes="" intLanes="" shape="-62.58,109.85 -65.08,104.39"/>
    <junction id="J15" type="priority" x="28.16" y="68.31" incLanes="E15_0 E15_1 E7_0 E7_1" intLanes="" shape="24.90,74.18 29.86,70.80 28.69,68.94 28.00,67.46 27.64,66.14 27.46,64.76 27.31,63.07 27.03,60.86 21.10,61.76 20.89,63.62 20.40,64.47 19.65,65.25 18.65,65.98 17.39,66.64 19.88,72.10 21.66,71.77 22.51,71.99 23.33,72.47 24.13,73.20">
        <request index="0" response="0000" foes="1100"/>
        <request index="1" response="0000" foes="1000"/>
        <request index="2" response="0001" foes="0001"/>
        <request index="3" response="0011" foes="0011"/>
    </junction>
    <junction id="J2" type="priority" x="37.63" y="11.10" incLanes="E0_0 E0_1 E9_0 E9_1" intLanes="" shape="42.78,7.67 39.45,2.67 37.85,3.17 36.87,3.11 35.78,2.84 34.58,2.36 33.26,1.68 30.27,6.88 31.33,7.83 31.57,8.40 31.63,9.03 31.49,9.72 31.17,10.47 36.47,13.29 38.20,10.69 39.05,9.96 40.02,9.34 41.23,8.64">
        <request index="0" response="0100" foes="0100"/>
        <request index="1" response="1100" foes="1100"/>
        <request index="2" response="0000" foes="0011"/>
        <request index="3" response="0000" foes="0010"/>
    </junction>
    <junction id="J3" type="dead_end" x="-29.73" y="-12.62" incLanes="E1_0 E1_1" intLanes="" shape="-32.80,-7.46 -29.73,-12.62"/>
    <junction id="J4" type="dead_end" x="201.75" y="-2.85" incLanes="" intLanes="" shape="201.75,-2.85 204.20,2.63"/>
    <junction id="J5" type="priority" x="138.59" y="30.18" incLanes="E2_0 E2_1 E11_0 E11_1" intLanes="" shape="139.48,36.27 145.42,35.40 145.66,33.73 146.15,32.87 146.87,31.99 147.83,31.08 149.04,30.16 145.59,25.25 144.35,25.79 143.82,25.76 143.34,25.52 142.91,25.08 142.54,24.44 137.10,26.97 137.93,28.84 138.46,30.26 138.79,31.47 139.00,32.71 139.20,34.23">
        <request index="0" response="0100" foes="0100"/>
        <request index="1" response="1100" foes="1100"/>
        <request index="2" response="0000" foes="0011"/>
        <request index="3" response="0000" foes="0010"/>
    </junction>
    <junction id="J6" type="priority" x="131.07" y="14.01" incLanes="E10_0 E10_1" intLanes="" shape="132.36,16.79 137.80,14.26 137.47,12.85 137.59,12.27 137.91,11.77 138.42,11.35 139.13,11.01 137.04,5.39 134.38,6.10 133.27,6.16 132.30,6.03 131.47,5.71 130.80,5.19 126.53,9.41 127.97,10.82 129.07,11.86 129.94,12.75 130.70,13.72 131.47,14.99">
        <request index="0" response="0000" foes="0000"/>
        <request index="1" response="0000" foes="0000"/>
        <request index="2" response="0000" foes="0000"/>
        <request index="3" response="0000" foes="0000"/>
    </junction>
    <junction id="J7" type="dead_end" x="195.03" y="-16.64" incLanes="E3_0 E3_1" intLanes="" shape="192.24,-21.95 195.03,-16.64"/>
    <junction id="J8" type="priority" x="136.77" y="66.48" incLanes="E12_0 E12_1" intLanes="" shape="143.08,72.41 147.19,68.03 145.16,65.82 144.51,64.82 144.10,63.89 143.92,63.03 143.99,62.24 138.16,60.81 137.65,62.90 137.27,64.46 136.90,65.72 136.46,66.96 135.84,68.43 134.95,70.39 140.39,72.92 141.12,71.93 141.55,71.74 142.02,71.75 142.53,71.98">
        <request index="0" response="0000" foes="0000"/>
        <request index="1" response="0000" foes="0000"/>
        <request index="2" response="0000" foes="0000"/>
        <request index="3" response="0000" foes="0000"/>
    </junction>
    <junction id="J9" type="dead_end" x="193.43" y="103.31" incLanes="E4_0 E4_1" intLanes="" shape="196.46,98.13 193.43,103.31"/>

    <connection from="E0" to="E10" fromLane="0" toLane="0" dir="r" state="m" visibility="9.00"/>
    <connection from="E0" to="E10" fromLane="1" toLane="1" dir="r" state="m" visibility="9.00"/>
    <connection from="E10" to="E3" fromLane="0" toLane="0" dir="r" state="M"/>
    <connection from="E10" to="E3" fromLane="0" toLane="1" dir="r" state="M"/>
    <connection from="E10" to="E11" fromLane="0" toLane="0" dir="s" state="M"/>
    <connection from="E10" to="E11" fromLane="1" toLane="1" dir="s" state="M"/>
    <connection from="E11" to="E12" fromLane="0" toLane="0" dir="s" state="M"/>
    <connection from="E11" to="E12" fromLane="1" toLane="1" dir="s" state="M"/>
    <connection from="E12" to="E4" fromLane="0" toLane="0" dir="r" state="M"/>
    <connection from="E12" to="E4" fromLane="0" toLane="1" dir="r" state="M"/>
    <connection from="E12" to="E13" fromLane="0" toLane="0" dir="s" state="M"/>
    <connection from="E12" to="E13" fromLane="1" toLane="1" dir="s" state="M"/>
    <connection from="E13" to="E14" fromLane="0" toLane="0" dir="s" state="M"/>
    <connection from="E13" to="E14" fromLane="1" toLane="1" dir="s" state="M"/>
    <connection from="E14" to="E6" fromLane="0" toLane="0" dir="R" state="M"/>
    <connection from="E14" to="E6" fromLane="0" toLane="1" dir="R" state="M"/>
    <connection from="E14" to="E15" fromLane="0" toLane="0" dir="s" state="M"/>
    <connection from="E14" to="E15" fromLane="1" toLane="1" dir="s" state="M"/>
    <connection from="E15" to="E8" fromLane="0" toLane="0" dir="s" state="M"/>
    <connection from="E15" to="E8" fromLane="1" toLane="1" dir="s" state="M"/>
    <connection from="E2" to="E12" fromLane="0" toLane="0" dir="r" state="m" visibility="9.00"/>
    <connection from="E2" to="E12" fromLane="1" toLane="1" dir="r" state="m" visibility="9.00"/>
    <connection from="E5" to="E14" fromLane="0" toLane="0" dir="r" state="m" visibility="9.00"/>
    <connection from="E5" to="E14" fromLane="1" toLane="1" dir="r" state="m" visibility="9.00"/>
    <connection from="E7" to="E8" fromLane="0" toLane="0" dir="r" state="m" visibility="9.00"/>
    <connection from="E7" to="E8" fromLane="1" toLane="1" dir="r" state="m" visibility="9.00"/>
    <connection from="E8" to="E1" fromLane="0" toLane="0" dir="R" state="M"/>
    <connection from="E8" to="E1" fromLane="0" toLane="1" dir="R" state="M"/>
    <connection from="E8" to="E9" fromLane="0" toLane="0" dir="s" state="M"/>
    <connection from="E8" to="E9" fromLane="1" toLane="1" dir="s" state="M"/>
    <connection from="E9" to="E10" fromLane="0" toLane="0" dir="s" state="M"/>
    <connection from="E9" to="E10" fromLane="1" toLane="1" dir="s" state="M"/>

    <roundabout nodes="J0 J11 J12 J15 J2 J5 J6 J8" edges="E10 E11 E12 E13 E14 E15 E8 E9"/>

</net>
